<additional>
    <poly id="priority_building" type="building" color="200,150,80,180" shape="430,410 570,410 570,470 430,470"/>
</additional>