<nodes>
    <node id="west" x="0" y="400"/>
    <node id="IL" x="300" y="400" type="traffic_light"/>
    <node id="IR" x="700" y="400" type="traffic_light"/>
    <node id="east" x="1000" y="400"/>
    <node id="n0" x="300" y="700"/><node id="s0" x="300" y="100"/>
    <node id="n1" x="700" y="700"/><node id="s1" x="700" y="100"/>
</nodes>